96

C             -0.45466059    12.71073331    -0.84013768
C              0.45466059   -12.71073331     0.84013768
C              0.60272810    13.73389929    -1.31463405
C             -0.60272810   -13.73389929     1.31463405
C              1.50260266    14.22466695    -0.18390695
C             -1.50260266   -14.22466695     0.18390695
C              2.25662787    13.04218114     0.42463761
C             -2.25662787   -13.04218114    -0.42463761
C              1.39635378    11.81610505     0.66900410
C             -1.39635378   -11.81610505    -0.66900410
C              0.18593505    11.64062086     0.07914294
C             -0.18593505   -11.64062086    -0.07914294
C             -0.65022198    10.44409862     0.29138858
C              0.65022198   -10.44409862    -0.29138858
C             -0.24771424     9.15308980     0.21636412
C              0.24771424    -9.15308980    -0.21636412
C             -1.08446852     7.97769251     0.39997778
C              1.08446852    -7.97769251    -0.39997778
C             -0.51110990     6.74413916     0.24882913
C              0.51110990    -6.74413916    -0.24882913
C             -1.12947704     5.45543705     0.37424162
C              1.12947704    -5.45543705    -0.37424162
C             -0.45068329     4.28540880     0.19346419
C              0.45068329    -4.28540880    -0.19346419
C             -0.99161745     2.95163258     0.29611789
C              0.99161745    -2.95163258    -0.29611789
C             -0.15093820     1.88744762     0.07551346
C              0.15093820    -1.88744762    -0.07551346
C             -0.45941558     0.49306126     0.11909892
C              0.45941558    -0.49306126    -0.11909892
C             -1.58762697    13.44254393    -0.07863729
C              1.58762697   -13.44254393     0.07863729
C             -1.05753331    12.04803102    -2.09971322
C              1.05753331   -12.04803102     2.09971322
C              2.02706531    10.83457814     1.62968699
C             -2.02706531   -10.83457814    -1.62968699
C             -2.53986595     8.17935503     0.74360583
C              2.53986595    -8.17935503    -0.74360583
C             -2.45359603     2.79236199     0.63929415
C              2.45359603    -2.79236199    -0.63929415
H               0.09170981    14.57361717    -1.80254687
H               1.22977307    13.26191010    -2.08361907
H              -0.09170981   -14.57361717     1.80254687
H              -1.22977307   -13.26191010     2.08361907
H               0.90147336    14.71598607     0.59088832
H               2.20938886    14.97773313    -0.55155598
H              -0.90147336   -14.71598607    -0.59088832
H              -2.20938886   -14.97773313     0.55155598
H               2.73055852    13.34018782     1.36930545
H               3.09102500    12.75420067    -0.23576988
H              -2.73055852   -13.34018782    -1.36930545
H              -3.09102500   -12.75420067     0.23576988
H              -1.70937852    10.63620382     0.45737970
H               1.70937852   -10.63620382    -0.45737970
H               0.79403495     8.95057478    -0.02592598
H              -0.79403495    -8.95057478     0.02592598
H               0.55046947     6.72654320    -0.00044117
H              -0.55046947    -6.72654320     0.00044117
H              -2.18628888     5.41377099     0.62184634
H               2.18628888    -5.41377099    -0.62184634
H               0.60880760     4.34954810    -0.05634096
H              -0.60880760    -4.34954810     0.05634096
H               0.88523369     2.12797220    -0.16490761
H              -0.88523369    -2.12797220     0.16490761
H              -1.47781272     0.18911047     0.35313934
H               1.47781272    -0.18911047    -0.35313934
H              -2.07859705    14.17089554    -0.73484112
H              -1.20771629    13.97529773     0.79782182
H              -2.35773636    12.74666466     0.26912040
H               1.20771629   -13.97529773    -0.79782182
H               2.07859705   -14.17089554     0.73484112
H               2.35773636   -12.74666466    -0.26912040
H              -0.30059662    11.47025078    -2.64026438
H              -1.44681969    12.81608412    -2.77832188
H              -1.88030628    11.36978279    -1.85669622
H               1.88030628   -11.36978279     1.85669622
H               1.44681969   -12.81608412     2.77832188
H               0.30059662   -11.47025078     2.64026438
H               1.32554945    10.08298770     1.99183449
H               2.44113677    11.36897763     2.49401872
H               2.87151581    10.30662687     1.16449443
H              -2.44113677   -11.36897763    -2.49401872
H              -1.32554945   -10.08298770    -1.99183449
H              -2.87151581   -10.30662687    -1.16449443
H              -3.07495680     7.23911004     0.87919239
H              -3.05288081     8.74262056    -0.04557429
H              -2.64537955     8.76045069     1.66735983
H               3.05288081    -8.74262056     0.04557429
H               3.07495680    -7.23911004    -0.87919239
H               2.64537955    -8.76045069    -1.66735983
H              -3.08539177     3.28558865    -0.10892946
H              -2.67971005     3.25843456     1.60565393
H              -2.76153767     1.74811102     0.69576677
H               2.76153767    -1.74811102    -0.69576677
H               2.67971005    -3.25843456    -1.60565393
H               3.08539177    -3.28558865     0.10892946